Code/tensor_power_flow/tau_benchmark_results/validation_all_w1.0_20260720_150059.csv
name,n_bus,n_pv,n_pq,pv_ratio,rx_ratio,eta,rho,rho_diag,rho_corr,contraction,nr_converged,nr_iter,nr_time_ms,tpf_converged,tpf_outer_iter,tpf_inner_iter_total,tpf_time_ms,max_v_error,mean_v_error,max_angle_error_deg,max_pv_v_error,speedup,passed,error
sz_75_r000,74,1,73,0.013513513513513514,5.822222222222223,0.27852459450570394,1.7332418111840142,1.7332418933342542,1.7332418111840142,0.2376650911582607,True,4,18.331899998884182,True,7,23,2.663600000232691,9.584479778723676e-07,6.530553265427552e-08,0.0004343036905565256,9.584479778723676e-07,6.882377232798737,True,
sz_75_r005,74,4,70,0.05405405405405406,5.822222222222223,0.6866087219823002,1.9888286489095035,1.9195234965428667,1.9888286489095035,0.2291159532503941,True,4,18.79200000075798,True,7,23,2.22119999853021,7.908776644693916e-07,3.074968990231204e-07,0.0003528753486623515,7.908776646914362e-07,8.460291740137238,True,
sz_75_r010,74,8,66,0.10810810810810811,5.822222222222223,0.38079209267142916,1.9815553454049994,1.949262197550793,1.9815553454049994,0.2094493534820744,True,4,19.121600000289618,True,7,23,2.2553999988303985,4.7102641453911076e-07,2.009334906358915e-07,0.00020363958500269064,4.7102641453911076e-07,8.47814135417472,True,
sz_75_r020,74,15,59,0.20270270270270271,5.822222222222223,1.4596172449260172,2.021715363686441,1.9879513241445954,2.021715363686441,0.2023957244713109,True,4,17.042199999195873,True,7,25,2.4885000002541346,3.5505729378826345e-07,1.7215670506582543e-07,0.00014522843253850226,3.5505729378826345e-07,6.848382558752446,True,
sz_75_r030,74,22,52,0.2972972972972973,5.822222222222223,4.4374435007715185,2.23266514795892,1.9744441320205421,2.23266514795892,0.5991307056411218,True,6,19.521000000167987,True,18,77,6.919299999935902,9.466346221342903e-07,3.8603684010090725e-07,0.0008320462625075464,9.46634622023268e-07,2.8212391427382575,True,
sz_75_r040,74,30,44,0.40540540540540543,5.822222222222223,2.9854589940494076,2.2182580116104162,2.185179672072743,2.2182580116104162,0.35467217425568975,True,5,18.325900000490947,True,9,34,3.173600000081933,8.841839505002724e-07,4.4843554421904896e-07,0.00045172541244786757,8.841839505002724e-07,5.774483236708415,True,
sz_75_r050,74,38,36,0.5135135135135135,5.822222222222223,7.231158945942072,2.274082210562346,2.094058275661909,2.274082210562346,0.6411442071667364,True,6,22.700499999700696,True,20,85,10.92140000037034,6.71265402374388e-07,3.6244427264119573e-07,0.0006240681089213496,6.71265402374388e-07,2.0785338874989407,True,
sz_75_r060,74,45,29,0.6081081081081081,5.822222222222223,4.548795625656279,2.2119079047762797,2.132026398237899,2.2119079047762797,0.44014726926197484,True,5,24.654999999256688,True,12,48,6.111499998951331,5.640807265727688e-07,2.7729047915322223e-07,0.00033089678198772177,5.640807265727688e-07,4.034197824345451,True,
